/*--------------------------------*- C++ -*----------------------------------*\
                                   OpenFEM
\*---------------------------------------------------------------------------*/
FoamFile
{
    version     2.0;
    format      ascii;
    class       fePointVectorField;
    object      U;
}
// * * * * * * * * * * * * * * * * * * * * * * * * * * * * * * * * * * * * * //

meshTypeI       1;
internalField   uniform 273;


// ************************************************************************* //
