/*--------------------------------*- C++ -*----------------------------------*\
| =========                 |                                                 |
| \\      /  F ield         | OpenFOAM: The Open Source CFD Toolbox           |
|  \\    /   O peration     | Version:  v3.0+                                 |
|   \\  /    A nd           | Web:      www.OpenFOAM.com                      |
|    \\/     M anipulation  |                                                 |
\*---------------------------------------------------------------------------*/
FoamFile
{
    version     2.0;
    format      ascii;
    class       polyBoundaryMesh;
    location    "constant/polyMesh";
    object      boundary;
}
// * * * * * * * * * * * * * * * * * * * * * * * * * * * * * * * * * * * * * //

6
(
    top
    {
        type            patch;
        nFaces          4;
        startFace       12;
    }
    bottom
    {
        type            patch;
        nFaces          4;
        startFace       16;
    }
    up
    {
        type            patch;
        nFaces          4;
        startFace       20;
    }
    left
    {
        type            patch;
        nFaces          4;
        startFace       24;
    }
    down
    {
        type            patch;
        nFaces          4;
        startFace       28;
    }
    right
    {
        type            patch;
        nFaces          4;
        startFace       32;
    }
)

// ************************************************************************* //
