/*--------------------------------*- C++ -*----------------------------------*\
| =========                 |                                                 |
| \\      /  F ield         | OpenFOAM: The Open Source CFD Toolbox           |
|  \\    /   O peration     | Version:  2.1.x                                 |
|   \\  /    A nd           | Web:      www.OpenFOAM.org                      |
|    \\/     M anipulation  |                                                 |
\*---------------------------------------------------------------------------*/
FoamFile
{
    version     2.0;
    format      ascii;
    class       dictionary;
    location    "system";
    object      feSolution;
}
// * * * * * * * * * * * * * * * * * * * * * * * * * * * * * * * * * * * * * //

solvers
{
    T
    {
        KSP          CG;
//        KSP          BICG;
//        KSP          GMRES;
        rtol        2.0e-05;
        atol        1.0e-15;
        dtol        100000;
         maxIters      10000;
        PC          ICC;
    }

}

IntegrationFactors
{
    equations
    {
        T      1.0 ; //0.5 ; //  0.66666;
    }
}


// ************************************************************************* //
