/*--------------------------------*- C++ -*----------------------------------*\
| =========                 |                                                 |
| \\      /  F ield         | OpenFOAM: The Open Source CFD Toolbox           |
|  \\    /   O peration     | Version:  2.1.x                                 |
|   \\  /    A nd           | Web:      www.OpenFOAM.org                      |
|    \\/     M anipulation  |                                                 |
\*---------------------------------------------------------------------------*/
FoamFile
{
    version     2.0;
    format      ascii;
    class       dictionary;
    location    "system";
    object      condition;
}
// * * * * * * * * * * * * * * * * * * * * * * * * * * * * * * * * * * * * * //
    
    NZ
    {
        type            default;
    }

    NX
    {
        type            default;
    }

    NY
    {
        type            default;
    }

    External
    {
        type            timeValueTr;
        timeValueTr constant  9.0;
    }
  
// ************************************************************************* //
