/*--------------------------------*- C++ -*----------------------------------*\
| =========                 |                                                 |
| \\      /  F ield         | OpenFOAM: The Open Source CFD Toolbox           |
|  \\    /   O peration     | Version:  2.1.x                                 |
|   \\  /    A nd           | Web:      www.OpenFOAM.org                      |
|    \\/     M anipulation  |                                                 |
\*---------------------------------------------------------------------------*/
FoamFile
{
    version     2.0;
    format      ascii;
    class       dictionary;
    location    "constant";
    object      condMech;
}
// * * * * * * * * * * * * * * * * * * * * * * * * * * * * * * * * * * * * * //

	down
    {
        type            fixedVel;
        valueZ           0.0;
    }


    top
    {
        type            timePressure;
        timePressure constant             0;
    }


    right
    {
        type            timePressure;
        timePressure constant           0;
    }


    left
    {
        type            timePressure;
        timePressure constant           0;
    }


    up
    {
        type            timePressure;
		timePressure table
		3
		(
			(0  0)
			(10 -19500000000000)
			(30 -21500000000000)
		);
    }


    bottom
    {
        type            timePressure;
        timePressure constant           0;
    }


// ************************************************************************* //
